Version 4
SHEET 1 2756 680
WIRE 432 -336 240 -336
WIRE 528 -336 496 -336
WIRE 432 -240 384 -240
WIRE 528 -240 528 -336
WIRE 528 -240 512 -240
WIRE 736 -208 720 -208
WIRE 832 -208 816 -208
WIRE 1408 -192 1376 -192
WIRE 1520 -192 1488 -192
WIRE 1568 -192 1520 -192
WIRE 1680 -192 1648 -192
WIRE 1872 -176 1840 -176
WIRE 1984 -176 1952 -176
WIRE 1632 -128 1584 -128
WIRE -1552 -112 -1552 -144
WIRE 128 -112 -592 -112
WIRE 240 -112 240 -336
WIRE 240 -112 208 -112
WIRE 272 -112 240 -112
WIRE 384 -112 384 -240
WIRE 384 -112 336 -112
WIRE 432 -112 384 -112
WIRE 1632 -112 1632 -128
WIRE 528 -96 528 -240
WIRE 528 -96 496 -96
WIRE 624 -96 528 -96
WIRE 720 -96 720 -208
WIRE 720 -96 704 -96
WIRE 736 -96 720 -96
WIRE 240 -80 240 -112
WIRE 432 -80 384 -80
WIRE 832 -80 832 -208
WIRE 832 -80 800 -80
WIRE 848 -80 832 -80
WIRE 960 -80 912 -80
WIRE 1072 -80 960 -80
WIRE 1264 -80 1072 -80
WIRE 1584 -80 1584 -128
WIRE 384 -64 384 -80
WIRE 736 -64 720 -64
WIRE 960 -64 960 -80
WIRE 1376 -64 1376 -192
WIRE 1376 -64 1328 -64
WIRE 1520 -64 1520 -192
WIRE 1552 -64 1520 -64
WIRE 1264 -48 1216 -48
WIRE 1680 -48 1680 -192
WIRE 1680 -48 1616 -48
WIRE 1728 -48 1680 -48
WIRE 1840 -48 1840 -176
WIRE 1840 -48 1808 -48
WIRE 1872 -48 1840 -48
WIRE -816 -32 -848 -32
WIRE -544 -32 -592 -32
WIRE -496 -32 -544 -32
WIRE 1440 -32 1424 -32
WIRE 1552 -32 1520 -32
WIRE 1984 -32 1984 -176
WIRE 1984 -32 1936 -32
WIRE -1552 -16 -1552 -32
WIRE -1552 -16 -1632 -16
WIRE -848 -16 -848 -32
WIRE 1872 -16 1840 -16
WIRE -1632 0 -1632 -16
WIRE -1552 0 -1552 -16
WIRE 1072 0 1072 -80
WIRE 720 16 720 -64
WIRE 1424 16 1424 -32
WIRE 960 32 960 16
WIRE 1520 32 1520 -32
WIRE -1008 48 -1072 48
WIRE -896 48 -928 48
WIRE -816 48 -896 48
WIRE -496 48 -592 48
WIRE 1216 48 1216 -48
WIRE 1376 48 1376 -64
WIRE 1376 48 1216 48
WIRE -896 64 -896 48
WIRE 1792 80 1792 64
WIRE -1552 112 -1552 80
WIRE 1520 128 1520 112
WIRE -1072 144 -1072 128
WIRE 960 144 960 96
WIRE 1072 144 1072 80
WIRE 1072 144 960 144
WIRE 1072 160 1072 144
WIRE 1792 176 1792 160
WIRE 1840 176 1840 -16
WIRE 1840 176 1792 176
WIRE 1792 192 1792 176
WIRE 1792 288 1792 272
FLAG -1632 0 0
FLAG -1552 -144 V++
FLAG -1552 112 V--
FLAG -816 -112 V++
FLAG -848 -16 0
FLAG -896 144 0
FLAG -1072 144 0
FLAG -544 -32 V++
FLAG -496 128 0
FLAG 240 0 0
FLAG 464 -128 V++
FLAG 384 -64 0
FLAG 464 -64 V--
FLAG 720 16 0
FLAG 768 -48 V--
FLAG 768 -112 V++
FLAG 1072 160 0
FLAG 1424 16 0
FLAG 1296 -32 V++
FLAG 1296 -96 V--
FLAG 1904 -64 V++
FLAG 1904 0 V--
FLAG 1792 288 0
FLAG 1792 64 V++
FLAG 1632 -112 V--
FLAG 1584 -16 V++
FLAG 1520 128 V++
SYMBOL SpecialFunctions\\LTC6990 -704 -32 R0
SYMATTR InstName U1
SYMBOL voltage -1552 -128 R0
WINDOW 123 0 0 Left 0
WINDOW 39 0 0 Left 0
SYMATTR InstName V1
SYMATTR Value 5
SYMBOL voltage -1552 -16 R0
WINDOW 123 0 0 Left 0
WINDOW 39 0 0 Left 0
SYMATTR InstName V2
SYMATTR Value 5
SYMBOL res -912 48 R0
SYMATTR InstName R3
SYMATTR Value 90k
SYMBOL res -912 32 R90
WINDOW 0 0 56 VBottom 2
WINDOW 3 32 56 VTop 2
SYMATTR InstName R4
SYMATTR Value 400k
SYMBOL voltage -1072 32 M0
WINDOW 123 0 0 Left 0
WINDOW 39 0 0 Left 0
SYMATTR InstName V3
SYMATTR Value PULSE(5 0 0 1p 1p 4m 8m 20)
SYMBOL res -512 -48 R0
SYMATTR InstName R1
SYMATTR Value 681k
SYMBOL res -512 32 R0
SYMATTR InstName R2
SYMATTR Value 1Meg
SYMBOL res 224 -128 R90
WINDOW 0 0 56 VBottom 2
WINDOW 3 32 56 VTop 2
SYMATTR InstName R5
SYMATTR Value 330k
SYMBOL res 256 16 R180
WINDOW 0 36 76 Left 2
WINDOW 3 36 40 Left 2
SYMATTR InstName R6
SYMATTR Value 330
SYMBOL cap 336 -128 R90
WINDOW 0 0 32 VBottom 2
WINDOW 3 32 32 VTop 2
SYMATTR InstName C1
SYMATTR Value 1n
SYMBOL cap 432 -320 R270
WINDOW 0 32 32 VTop 2
WINDOW 3 0 32 VBottom 2
SYMATTR InstName C2
SYMATTR Value 1n
SYMBOL res 528 -256 R90
WINDOW 0 0 56 VBottom 2
WINDOW 3 32 56 VTop 2
SYMATTR InstName R7
SYMATTR Value 680k
SYMBOL Opamps\\UniversalOpamp2 464 -96 R0
SYMATTR InstName U2
SYMBOL Opamps\\UniversalOpamp2 768 -80 R0
SYMATTR InstName U5
SYMBOL res 832 -224 R90
WINDOW 0 0 56 VBottom 2
WINDOW 3 32 56 VTop 2
SYMATTR InstName R14
SYMATTR Value 560k
SYMBOL res 720 -112 R90
WINDOW 0 0 56 VBottom 2
WINDOW 3 32 56 VTop 2
SYMATTR InstName R15
SYMATTR Value 1k
SYMBOL diode 848 -64 R270
WINDOW 0 32 32 VTop 2
WINDOW 3 0 32 VBottom 2
SYMATTR InstName D1
SYMATTR Value 1N4148
SYMBOL res 1056 -16 R0
SYMATTR InstName R16
SYMATTR Value 120k
SYMBOL cap 944 32 R0
SYMATTR InstName C7
SYMATTR Value 1.2n
SYMBOL res 944 -80 R0
SYMATTR InstName R17
SYMATTR Value 10
SYMBOL Opamps\\UniversalOpamp2 1584 -48 M180
SYMATTR InstName U6
SYMBOL res 1504 -208 R90
WINDOW 0 0 56 VBottom 2
WINDOW 3 32 56 VTop 2
SYMATTR InstName R18
SYMATTR Value 20k
SYMBOL res 1664 -208 R90
WINDOW 0 0 56 VBottom 2
WINDOW 3 32 56 VTop 2
SYMATTR InstName R19
SYMATTR Value 100k
SYMBOL res 1536 -48 R90
WINDOW 0 0 56 VBottom 2
WINDOW 3 32 56 VTop 2
SYMATTR InstName R20
SYMATTR Value 20k
SYMBOL res 1536 16 M0
SYMATTR InstName R21
SYMATTR Value 40k
SYMBOL Opamps\\UniversalOpamp2 1296 -64 M180
SYMATTR InstName U7
SYMBOL Opamps\\UniversalOpamp2 1904 -32 R0
SYMATTR InstName U8
SYMBOL res 1824 -64 R90
WINDOW 0 0 56 VBottom 2
WINDOW 3 32 56 VTop 2
SYMATTR InstName R22
SYMATTR Value 100k
SYMBOL res 1968 -192 R90
WINDOW 0 0 56 VBottom 2
WINDOW 3 32 56 VTop 2
SYMATTR InstName R23
SYMATTR Value 100k
SYMBOL res 1808 64 M0
SYMATTR InstName R24
SYMATTR Value 100k
SYMBOL res 1808 176 M0
SYMATTR InstName R25
SYMATTR Value 100k
TEXT -800 144 Left 2 !.tran 0 30m 10m 10u
TEXT 216 -496 Left 2 ;2nd order Bandpass Chebysehv\nMultiple Feedback\nfc=10kHz
TEXT 728 -312 Left 2 ;Variable Gain
TEXT 960 -136 Left 2 ;Rectifier
TEXT 1240 -168 Left 2 ;Buffer
TEXT 1400 -352 Left 2 ;Hysteresis Comparator\n  Vth = 1.67V\n  Vtl =  1.00V
TEXT -792 -200 Left 2 ;FSK modulator
TEXT 1872 -272 Left 2 ;Inverter
TEXT -352 -152 Left 2 ;Communication method
