Version 4
SHEET 1 2372 680
WIRE -80 -304 -96 -304
WIRE 128 -304 -16 -304
WIRE 272 -288 256 -288
WIRE 480 -288 336 -288
WIRE 1104 -288 800 -288
WIRE 1472 -240 1296 -240
WIRE 1760 -240 1632 -240
WIRE 128 -224 128 -304
WIRE 128 -224 96 -224
WIRE 480 -208 480 -288
WIRE 480 -208 448 -208
WIRE 576 -208 480 -208
WIRE 1472 -192 1392 -192
WIRE 992 -176 944 -176
WIRE 1392 -144 1392 -192
WIRE -1552 -112 -1552 -144
WIRE -224 -112 -592 -112
WIRE -96 -112 -96 -304
WIRE -96 -112 -144 -112
WIRE -80 -112 -96 -112
WIRE 16 -112 16 -224
WIRE 16 -112 -16 -112
WIRE 32 -112 16 -112
WIRE 128 -96 128 -224
WIRE 128 -96 96 -96
WIRE 256 -96 256 -288
WIRE 256 -96 208 -96
WIRE 272 -96 256 -96
WIRE 368 -96 368 -208
WIRE 368 -96 336 -96
WIRE 384 -96 368 -96
WIRE 800 -96 800 -288
WIRE 848 -96 800 -96
WIRE -96 -80 -96 -112
WIRE 32 -80 16 -80
WIRE 480 -80 480 -208
WIRE 480 -80 448 -80
WIRE 944 -80 944 -176
WIRE 944 -80 912 -80
WIRE 960 -80 944 -80
WIRE 1056 -80 1056 -128
WIRE 1056 -80 1040 -80
WIRE 1104 -80 1104 -288
WIRE 1104 -80 1056 -80
WIRE 1200 -80 1168 -80
WIRE 1296 -80 1296 -240
WIRE 1296 -80 1200 -80
WIRE 256 -64 256 -96
WIRE 384 -64 368 -64
WIRE 576 -64 576 -208
WIRE 848 -64 576 -64
WIRE 1200 -64 1200 -80
WIRE 1296 -64 1296 -80
WIRE 16 -48 16 -80
WIRE -816 -32 -848 -32
WIRE -496 -32 -592 -32
WIRE -384 -32 -496 -32
WIRE 368 -32 368 -64
WIRE 1056 -32 1056 -80
WIRE -1552 -16 -1552 -32
WIRE -1552 -16 -1632 -16
WIRE -848 -16 -848 -32
WIRE -1632 0 -1632 -16
WIRE -1552 0 -1552 -16
WIRE -384 16 -384 -32
WIRE 944 16 944 -80
WIRE 992 16 944 16
WIRE 1200 32 1200 16
WIRE -1008 48 -1072 48
WIRE -896 48 -928 48
WIRE -816 48 -896 48
WIRE -496 48 -592 48
WIRE -896 64 -896 48
WIRE -1552 112 -1552 80
WIRE -384 128 -384 80
WIRE -384 128 -496 128
WIRE 1200 128 1200 96
WIRE 1248 128 1200 128
WIRE 1296 128 1296 16
WIRE 1296 128 1248 128
WIRE -1072 144 -1072 128
WIRE -496 144 -496 128
WIRE 1248 160 1248 128
FLAG -496 144 0
FLAG -1632 0 0
FLAG -1552 -144 V++
FLAG -1552 112 V--
FLAG -816 -112 V++
FLAG -848 -16 0
FLAG -896 144 0
FLAG -1072 144 0
FLAG -496 -32 V++
FLAG -96 0 0
FLAG 256 16 0
FLAG 64 -128 V++
FLAG 64 -64 V--
FLAG 416 -48 V--
FLAG 416 -112 V++
FLAG 16 -48 0
FLAG 368 -32 0
FLAG 1248 160 0
FLAG 1056 -224 V++
FLAG 1056 64 V--
FLAG 880 -112 V++
FLAG 880 -48 V--
FLAG 1392 -64 0
FLAG 1760 -160 0
SYMBOL SpecialFunctions\\LTC6990 -704 -32 R0
SYMATTR InstName U1
SYMBOL res -512 -48 R0
SYMATTR InstName R1
SYMATTR Value 523k
SYMBOL res -512 32 R0
SYMATTR InstName R2
SYMATTR Value 1Meg
SYMBOL cap -400 16 R0
SYMATTR InstName C1
SYMATTR Value 100n
SYMBOL voltage -1552 -128 R0
WINDOW 123 0 0 Left 0
WINDOW 39 0 0 Left 0
SYMATTR InstName V1
SYMATTR Value 5
SYMBOL voltage -1552 -16 R0
WINDOW 123 0 0 Left 0
WINDOW 39 0 0 Left 0
SYMATTR InstName V2
SYMATTR Value 5
SYMBOL res -912 48 R0
SYMATTR InstName R3
SYMATTR Value 200k
SYMBOL res -912 32 R90
WINDOW 0 0 56 VBottom 2
WINDOW 3 32 56 VTop 2
SYMATTR InstName R4
SYMATTR Value 400k
SYMBOL voltage -1072 32 M0
WINDOW 123 0 0 Left 0
WINDOW 39 0 0 Left 0
SYMATTR InstName V3
SYMATTR Value PULSE(0 5 0 1p 1p 40m 80m)
SYMBOL Opamps\\UniversalOpamp2 64 -96 R0
SYMATTR InstName U2
SYMBOL cap -16 -128 R90
WINDOW 0 0 32 VBottom 2
WINDOW 3 32 32 VTop 2
SYMATTR InstName C2
SYMATTR Value 1n
SYMBOL cap -16 -320 R90
WINDOW 0 0 32 VBottom 2
WINDOW 3 32 32 VTop 2
SYMATTR InstName C3
SYMATTR Value 1n
SYMBOL res 112 -240 R90
WINDOW 0 0 56 VBottom 2
WINDOW 3 32 56 VTop 2
SYMATTR InstName R5
SYMATTR Value 560k
SYMBOL res -112 -96 R0
SYMATTR InstName R6
SYMATTR Value 330
SYMBOL res -128 -128 R90
WINDOW 0 0 56 VBottom 2
WINDOW 3 32 56 VTop 2
SYMATTR InstName R7
SYMATTR Value 82k
SYMBOL Opamps\\UniversalOpamp2 416 -80 R0
SYMATTR InstName U3
SYMBOL cap 336 -112 R90
WINDOW 0 0 32 VBottom 2
WINDOW 3 32 32 VTop 2
SYMATTR InstName C4
SYMATTR Value 1n
SYMBOL cap 336 -304 R90
WINDOW 0 0 32 VBottom 2
WINDOW 3 32 32 VTop 2
SYMATTR InstName C5
SYMATTR Value 1n
SYMBOL res 464 -224 R90
WINDOW 0 0 56 VBottom 2
WINDOW 3 32 56 VTop 2
SYMATTR InstName R8
SYMATTR Value 560k
SYMBOL res 240 -80 R0
SYMATTR InstName R9
SYMATTR Value 330
SYMBOL res 224 -112 R90
WINDOW 0 0 56 VBottom 2
WINDOW 3 32 56 VTop 2
SYMATTR InstName R10
SYMATTR Value 82k
SYMBOL cap 1184 32 R0
SYMATTR InstName C6
SYMATTR Value 10n
SYMBOL res 1280 -80 R0
SYMATTR InstName R11
SYMATTR Value 100k
SYMBOL res 1184 -80 R0
SYMATTR InstName R12
SYMATTR Value 10
SYMBOL Opamps\\UniversalOpamp2 880 -80 R0
SYMATTR InstName U4
SYMBOL npn 992 -224 R0
SYMATTR InstName Q1
SYMBOL pnp 992 64 M180
SYMATTR InstName Q2
SYMBOL res 1056 -96 R90
WINDOW 0 0 56 VBottom 2
WINDOW 3 32 56 VTop 2
SYMATTR InstName R13
SYMATTR Value 1k
SYMBOL diode 1104 -64 R270
WINDOW 0 32 32 VTop 2
WINDOW 3 0 32 VBottom 2
SYMATTR InstName D1
SYMBOL Digital\\dflop 1552 -288 R0
SYMATTR InstName A3
SYMBOL voltage 1392 -160 R0
WINDOW 123 0 0 Left 0
WINDOW 39 0 0 Left 0
SYMATTR InstName V4
SYMATTR Value PULSE(0 5 0 1p 1p 10u 20u)
SYMBOL res 1744 -256 R0
SYMATTR InstName R14
SYMATTR Value 100k
TEXT -802 144 Left 2 !.tran 0 500m 0 10u
