Version 4
SHEET 1 2372 680
WIRE -80 -352 -208 -352
WIRE 64 -352 -16 -352
WIRE 256 -240 208 -240
WIRE 352 -240 336 -240
WIRE -80 -224 -96 -224
WIRE 64 -224 64 -352
WIRE 64 -224 0 -224
WIRE 128 -208 128 -240
WIRE 208 -128 208 -240
WIRE 240 -128 208 -128
WIRE -1552 -112 -1552 -144
WIRE -320 -112 -592 -112
WIRE -208 -112 -208 -352
WIRE -208 -112 -240 -112
WIRE -192 -112 -208 -112
WIRE -96 -112 -96 -224
WIRE -96 -112 -128 -112
WIRE -48 -112 -96 -112
WIRE 352 -112 352 -240
WIRE 352 -112 304 -112
WIRE 608 -112 352 -112
WIRE 992 -112 672 -112
WIRE 1088 -112 992 -112
WIRE 64 -96 64 -224
WIRE 64 -96 16 -96
WIRE 240 -96 144 -96
WIRE -48 -80 -96 -80
WIRE -208 -64 -208 -112
WIRE 992 -64 992 -112
WIRE -96 -48 -96 -80
WIRE -816 -32 -848 -32
WIRE -544 -32 -592 -32
WIRE -496 -32 -544 -32
WIRE -1552 -16 -1552 -32
WIRE -1552 -16 -1632 -16
WIRE -848 -16 -848 -32
WIRE -1632 0 -1632 -16
WIRE -1552 0 -1552 -16
WIRE 992 32 992 0
WIRE 1040 32 992 32
WIRE 1088 32 1088 -32
WIRE 1088 32 1040 32
WIRE -1008 48 -1072 48
WIRE -896 48 -928 48
WIRE -816 48 -896 48
WIRE -496 48 -592 48
WIRE -896 64 -896 48
WIRE 1040 64 1040 32
WIRE -1552 112 -1552 80
WIRE -1072 144 -1072 128
FLAG -1632 0 0
FLAG -1552 -144 V++
FLAG -1552 112 V--
FLAG -816 -112 V++
FLAG -848 -16 0
FLAG -896 144 0
FLAG -1072 144 0
FLAG -544 -32 V++
FLAG -496 128 0
FLAG 1040 64 0
FLAG -208 16 0
FLAG -96 -48 0
FLAG -16 -128 V++
FLAG -16 -64 V--
FLAG 128 -208 0
FLAG 272 -144 V++
FLAG 272 -80 V--
SYMBOL SpecialFunctions\\LTC6990 -704 -32 R0
SYMATTR InstName U1
SYMBOL voltage -1552 -128 R0
WINDOW 123 0 0 Left 0
WINDOW 39 0 0 Left 0
SYMATTR InstName V1
SYMATTR Value 5
SYMBOL voltage -1552 -16 R0
WINDOW 123 0 0 Left 0
WINDOW 39 0 0 Left 0
SYMATTR InstName V2
SYMATTR Value 5
SYMBOL res -912 48 R0
SYMATTR InstName R3
SYMATTR Value 200k
SYMBOL res -912 32 R90
WINDOW 0 0 56 VBottom 2
WINDOW 3 32 56 VTop 2
SYMATTR InstName R4
SYMATTR Value 400k
SYMBOL voltage -1072 32 M0
WINDOW 123 0 0 Left 0
WINDOW 39 0 0 Left 0
SYMATTR InstName V3
SYMATTR Value PULSE(5 0 0 1p 1p 1000u 2000u 20)
SYMBOL res -512 -48 R0
SYMATTR InstName R1
SYMATTR Value 280k
SYMBOL res -512 32 R0
SYMATTR InstName R2
SYMATTR Value 1Meg
SYMBOL diode 608 -96 R270
WINDOW 0 32 32 VTop 2
WINDOW 3 0 32 VBottom 2
SYMATTR InstName D1
SYMBOL cap 1008 -64 M0
SYMATTR InstName C1
SYMATTR Value 680p
SYMBOL res 1072 -128 R0
SYMATTR InstName R5
SYMATTR Value 150k
SYMBOL res -224 -128 R90
WINDOW 0 0 56 VBottom 2
WINDOW 3 32 56 VTop 2
SYMATTR InstName R6
SYMATTR Value 27k
SYMBOL Opamps\\UniversalOpamp2 -16 -96 R0
SYMATTR InstName U2
SYMBOL cap -128 -128 R90
WINDOW 0 0 32 VBottom 2
WINDOW 3 32 32 VTop 2
SYMATTR InstName C2
SYMATTR Value 1n
SYMBOL cap -16 -368 R90
WINDOW 0 0 32 VBottom 2
WINDOW 3 32 32 VTop 2
SYMATTR InstName C3
SYMATTR Value 1n
SYMBOL res 16 -240 R90
WINDOW 0 0 56 VBottom 2
WINDOW 3 32 56 VTop 2
SYMATTR InstName R7
SYMATTR Value 150k
SYMBOL res -224 -80 R0
SYMATTR InstName R8
SYMATTR Value 82
SYMBOL res 160 -112 R90
WINDOW 0 0 56 VBottom 2
WINDOW 3 32 56 VTop 2
SYMATTR InstName R9
SYMATTR Value 27k
SYMBOL Opamps\\UniversalOpamp2 272 -112 R0
SYMATTR InstName U3
SYMBOL res 352 -256 R90
WINDOW 0 0 56 VBottom 2
WINDOW 3 32 56 VTop 2
SYMATTR InstName R10
SYMATTR Value 150k
SYMBOL res 224 -256 R90
WINDOW 0 0 56 VBottom 2
WINDOW 3 32 56 VTop 2
SYMATTR InstName R11
SYMATTR Value 50k
TEXT -802 144 Left 2 !.tran 0 5m 0 10u
